instances/data_GOC/Phase_0_Modified_RTS96/scenario_18/powersystem.raw
 0,  100.000000
rts96_spring_wday.raw / File written by to_psse.gms
5 / 19 / 2015
101, ' 101 ',138,2,1,1,1,1.00,0.00,1.1,0.9,1.1,0.9
102, ' 102 ',138,2,1,1,1,1.00,0.00,1.1,0.9,1.1,0.9
103, ' 103 ',138,1,1,1,1,1.00,0.00,1.1,0.9,1.1,0.9
104, ' 104 ',138,1,1,1,1,1.00,0.00,1.1,0.9,1.1,0.9
105, ' 105 ',138,1,1,1,1,1.00,0.00,1.1,0.9,1.1,0.9
106, ' 106 ',138,1,1,1,1,1.00,0.00,1.1,0.9,1.1,0.9
107, ' 107 ',138,2,1,1,1,1.00,0.00,1.1,0.9,1.1,0.9
108, ' 108 ',138,1,1,1,1,1.00,0.00,1.1,0.9,1.1,0.9
109, ' 109 ',138,1,1,1,1,1.00,0.00,1.1,0.9,1.1,0.9
110, ' 110 ',138,1,1,1,1,1.00,0.00,1.1,0.9,1.1,0.9
111, ' 111 ',230,1,1,1,1,1.00,0.00,1.1,0.9,1.1,0.9
112, ' 112 ',230,1,1,1,1,1.00,0.00,1.1,0.9,1.1,0.9
113, ' 113 ',230,3,1,1,1,1.00,0.00,1.1,0.9,1.1,0.9
114, ' 114 ',230,2,1,1,1,1.00,0.00,1.1,0.9,1.1,0.9
115, ' 115 ',230,2,1,1,1,1.00,0.00,1.1,0.9,1.1,0.9
116, ' 116 ',230,2,1,1,1,1.00,0.00,1.1,0.9,1.1,0.9
117, ' 117 ',230,1,1,1,1,1.00,0.00,1.1,0.9,1.1,0.9
118, ' 118 ',230,2,1,1,1,1.00,0.00,1.1,0.9,1.1,0.9
119, ' 119 ',230,1,1,1,1,1.00,0.00,1.1,0.9,1.1,0.9
120, ' 120 ',230,1,1,1,1,1.00,0.00,1.1,0.9,1.1,0.9
121, ' 121 ',230,2,1,1,1,1.00,0.00,1.1,0.9,1.1,0.9
122, ' 122 ',230,2,1,1,1,1.00,0.00,1.1,0.9,1.1,0.9
123, ' 123 ',230,2,1,1,1,1.00,0.00,1.1,0.9,1.1,0.9
124, ' 124 ',230,1,1,1,1,1.00,0.00,1.1,0.9,1.1,0.9
201, ' 201 ',138,2,1,1,1,1.00,0.00,1.1,0.9,1.1,0.9
202, ' 202 ',138,2,1,1,1,1.00,0.00,1.1,0.9,1.1,0.9
203, ' 203 ',138,1,1,1,1,1.00,0.00,1.1,0.9,1.1,0.9
204, ' 204 ',138,1,1,1,1,1.00,0.00,1.1,0.9,1.1,0.9
205, ' 205 ',138,1,1,1,1,1.00,0.00,1.1,0.9,1.1,0.9
206, ' 206 ',138,1,1,1,1,1.00,0.00,1.1,0.9,1.1,0.9
207, ' 207 ',138,2,1,1,1,1.00,0.00,1.1,0.9,1.1,0.9
208, ' 208 ',138,1,1,1,1,1.00,0.00,1.1,0.9,1.1,0.9
209, ' 209 ',138,1,1,1,1,1.00,0.00,1.1,0.9,1.1,0.9
210, ' 210 ',138,1,1,1,1,1.00,0.00,1.1,0.9,1.1,0.9
211, ' 211 ',230,1,1,1,1,1.00,0.00,1.1,0.9,1.1,0.9
212, ' 212 ',230,1,1,1,1,1.00,0.00,1.1,0.9,1.1,0.9
213, ' 213 ',230,2,1,1,1,1.00,0.00,1.1,0.9,1.1,0.9
214, ' 214 ',230,2,1,1,1,1.00,0.00,1.1,0.9,1.1,0.9
215, ' 215 ',230,2,1,1,1,1.00,0.00,1.1,0.9,1.1,0.9
216, ' 216 ',230,2,1,1,1,1.00,0.00,1.1,0.9,1.1,0.9
217, ' 217 ',230,1,1,1,1,1.00,0.00,1.1,0.9,1.1,0.9
218, ' 218 ',230,2,1,1,1,1.00,0.00,1.1,0.9,1.1,0.9
219, ' 219 ',230,1,1,1,1,1.00,0.00,1.1,0.9,1.1,0.9
220, ' 220 ',230,1,1,1,1,1.00,0.00,1.1,0.9,1.1,0.9
221, ' 221 ',230,2,1,1,1,1.00,0.00,1.1,0.9,1.1,0.9
222, ' 222 ',230,2,1,1,1,1.00,0.00,1.1,0.9,1.1,0.9
223, ' 223 ',230,2,1,1,1,1.00,0.00,1.1,0.9,1.1,0.9
224, ' 224 ',230,1,1,1,1,1.00,0.00,1.1,0.9,1.1,0.9
301, ' 301 ',138,2,1,1,1,1.00,0.00,1.1,0.9,1.1,0.9
302, ' 302 ',138,2,1,1,1,1.00,0.00,1.1,0.9,1.1,0.9
303, ' 303 ',138,1,1,1,1,1.00,0.00,1.1,0.9,1.1,0.9
304, ' 304 ',138,1,1,1,1,1.00,0.00,1.1,0.9,1.1,0.9
305, ' 305 ',138,1,1,1,1,1.00,0.00,1.1,0.9,1.1,0.9
306, ' 306 ',138,1,1,1,1,1.00,0.00,1.1,0.9,1.1,0.9
307, ' 307 ',138,2,1,1,1,1.00,0.00,1.1,0.9,1.1,0.9
308, ' 308 ',138,1,1,1,1,1.00,0.00,1.1,0.9,1.1,0.9
309, ' 309 ',138,1,1,1,1,1.00,0.00,1.1,0.9,1.1,0.9
310, ' 310 ',138,1,1,1,1,1.00,0.00,1.1,0.9,1.1,0.9
311, ' 311 ',230,1,1,1,1,1.00,0.00,1.1,0.9,1.1,0.9
312, ' 312 ',230,1,1,1,1,1.00,0.00,1.1,0.9,1.1,0.9
313, ' 313 ',230,2,1,1,1,1.00,0.00,1.1,0.9,1.1,0.9
314, ' 314 ',230,2,1,1,1,1.00,0.00,1.1,0.9,1.1,0.9
315, ' 315 ',230,2,1,1,1,1.00,0.00,1.1,0.9,1.1,0.9
316, ' 316 ',230,2,1,1,1,1.00,0.00,1.1,0.9,1.1,0.9
317, ' 317 ',230,1,1,1,1,1.00,0.00,1.1,0.9,1.1,0.9
318, ' 318 ',230,2,1,1,1,1.00,0.00,1.1,0.9,1.1,0.9
319, ' 319 ',230,1,1,1,1,1.00,0.00,1.1,0.9,1.1,0.9
320, ' 320 ',230,1,1,1,1,1.00,0.00,1.1,0.9,1.1,0.9
321, ' 321 ',230,2,1,1,1,1.00,0.00,1.1,0.9,1.1,0.9
322, ' 322 ',230,2,1,1,1,1.00,0.00,1.1,0.9,1.1,0.9
323, ' 323 ',230,2,1,1,1,1.00,0.00,1.1,0.9,1.1,0.9
324, ' 324 ',230,1,1,1,1,1.00,0.00,1.1,0.9,1.1,0.9
325, ' 325 ',230,1,1,1,1,1.00,0.00,1.1,0.9,1.1,0.9
0 / END OF BUS DATA, BEGIN LOAD DATA
101, '1 ',1,11,11,60.42297610111814,17.72937445178619,0.0,0.0,0.0,0.0,1,1,0
102, '1 ',1,11,12,82.0085435868608,11.43088371032942,0.0,0.0,0.0,0.0,1,1,0
103, '1 ',1,11,11,142.69611125523784,29.90765368226585,0.0,0.0,0.0,0.0,1,1,0
104, '1 ',1,11,11,41.96872122583296,11.19797988644801,0.0,0.0,0.0,0.0,1,1,0
105, '1 ',1,11,11,36.06942311359076,9.602384581975825,0.0,0.0,0.0,0.0,1,1,0
106, '1 ',1,11,12,88.93923455717079,19.899988115925527,0.0,0.0,0.0,0.0,1,1,0
107, '1 ',1,11,12,99.13513726390083,21.92787860087352,0.0,0.0,0.0,0.0,1,1,0
108, '1 ',1,11,12,137.68849246830914,20.070750884876816,0.0,0.0,0.0,0.0,1,1,0
109, '1 ',1,11,13,135.1478445559193,28.864910573468173,0.0,0.0,0.0,0.0,1,1,0
110, '1 ',1,11,13,113.83184004356525,34.44051555094309,0.0,0.0,0.0,0.0,1,1,0
111, '1 ',1,11,13,0.0,0.0,0.0,0.0,0.0,0.0,1,1,0
112, '1 ',1,11,13,0.0,0.0,0.0,0.0,0.0,0.0,1,1,0
113, '1 ',1,12,14,141.57379102459504,43.549258644322485,0.0,0.0,0.0,0.0,1,1,0
114, '1 ',1,12,16,112.92759670438981,31.081726958824373,0.0,0.0,0.0,0.0,1,1,0
115, '1 ',1,12,16,227.0006837782149,52.18198410099148,0.0,0.0,0.0,0.0,1,1,0
116, '1 ',1,12,16,86.93436053090728,14.041805286484768,0.0,0.0,0.0,0.0,1,1,0
117, '1 ',1,12,17,0.0,0.0,0.0,0.0,0.0,0.0,1,1,0
118, '1 ',1,12,17,284.974454088219,51.28310994061512,0.0,0.0,0.0,0.0,1,1,0
119, '1 ',1,12,15,93.7861384665634,24.94571311576031,0.0,0.0,0.0,0.0,1,1,0
120, '1 ',1,12,15,92.76588333123922,17.701549158781397,0.0,0.0,0.0,0.0,1,1,0
121, '1 ',1,12,17,0.0,0.0,0.0,0.0,0.0,0.0,1,1,0
122, '1 ',1,12,17,0.0,0.0,0.0,0.0,0.0,0.0,1,1,0
123, '1 ',1,12,15,0.0,0.0,0.0,0.0,0.0,0.0,1,1,0
124, '1 ',1,12,16,0.0,0.0,0.0,0.0,0.0,0.0,1,1,0
201, '1 ',1,21,21,93.01796133264507,15.477376170277688,0.0,0.0,0.0,0.0,1,1,0
202, '1 ',1,21,22,48.883089910560614,14.036694584422746,0.0,0.0,0.0,0.0,1,1,0
203, '1 ',1,21,21,160.72415345707165,31.679375568675198,0.0,0.0,0.0,0.0,1,1,0
204, '1 ',1,21,21,64.99139915678754,10.22738936569565,0.0,0.0,0.0,0.0,1,1,0
205, '1 ',1,21,21,44.03566176318387,10.66329523284193,0.0,0.0,0.0,0.0,1,1,0
206, '1 ',1,21,22,77.89370159679986,21.3149326642463,0.0,0.0,0.0,0.0,1,1,0
207, '1 ',1,21,22,96.16076370229712,17.298361993711442,0.0,0.0,0.0,0.0,1,1,0
208, '1 ',1,21,22,123.54454182887889,21.234857820719014,0.0,0.0,0.0,0.0,1,1,0
209, '1 ',1,21,23,110.79861206782283,28.612266797713747,0.0,0.0,0.0,0.0,1,1,0
210, '1 ',1,21,23,119.20544073811685,25.845057617833834,0.0,0.0,0.0,0.0,1,1,0
211, '1 ',1,21,23,0.0,0.0,0.0,0.0,0.0,0.0,1,1,0
212, '1 ',1,21,23,0.0,0.0,0.0,0.0,0.0,0.0,1,1,0
213, '1 ',1,22,24,178.7357802225065,42.397964572872965,0.0,0.0,0.0,0.0,1,1,0
214, '1 ',1,22,26,112.15672837811121,20.175641660661064,0.0,0.0,0.0,0.0,1,1,0
215, '1 ',1,22,26,163.5775013769474,52.618735422474145,0.0,0.0,0.0,0.0,1,1,0
216, '1 ',1,22,26,74.16297217005864,16.830938004643656,0.0,0.0,0.0,0.0,1,1,0
217, '1 ',1,22,27,0.0,0.0,0.0,0.0,0.0,0.0,1,1,0
218, '1 ',1,22,27,294.7056499886339,60.005854413716875,0.0,0.0,0.0,0.0,1,1,0
219, '1 ',1,22,25,162.693802173234,29.955833658870166,0.0,0.0,0.0,0.0,1,1,0
220, '1 ',1,22,25,98.89631374070048,20.769961848037042,0.0,0.0,0.0,0.0,1,1,0
221, '1 ',1,22,27,0.0,0.0,0.0,0.0,0.0,0.0,1,1,0
222, '1 ',1,22,27,0.0,0.0,0.0,0.0,0.0,0.0,1,1,0
223, '1 ',1,22,25,0.0,0.0,0.0,0.0,0.0,0.0,1,1,0
224, '1 ',1,22,26,0.0,0.0,0.0,0.0,0.0,0.0,1,1,0
301, '1 ',1,31,31,67.59453963865042,14.300014585326332,0.0,0.0,0.0,0.0,1,1,0
302, '1 ',1,31,32,77.45458607156715,15.24095722504053,0.0,0.0,0.0,0.0,1,1,0
303, '1 ',1,31,31,155.47819252647923,18.11238401990421,0.0,0.0,0.0,0.0,1,1,0
304, '1 ',1,31,31,55.42277760653878,7.74086108678067,0.0,0.0,0.0,0.0,1,1,0
305, '1 ',1,31,31,45.72982731183772,7.104364889979735,0.0,0.0,0.0,0.0,1,1,0
306, '1 ',1,31,32,117.90185667861367,17.8146205223104,0.0,0.0,0.0,0.0,1,1,0
307, '1 ',1,31,32,92.16073504190426,18.896468934151343,0.0,0.0,0.0,0.0,1,1,0
308, '1 ',1,31,32,115.41176980230594,24.293601745240156,0.0,0.0,0.0,0.0,1,1,0
309, '1 ',1,31,33,155.91982321105084,20.118916956293955,0.0,0.0,0.0,0.0,1,1,0
310, '1 ',1,31,33,109.30536358801648,35.51970750352554,0.0,0.0,0.0,0.0,1,1,0
311, '1 ',1,31,33,0.0,0.0,0.0,0.0,0.0,0.0,1,1,0
312, '1 ',1,31,33,0.0,0.0,0.0,0.0,0.0,0.0,1,1,0
313, '1 ',1,32,34,187.3634952010049,30.399129528210402,0.0,0.0,0.0,0.0,1,1,0
314, '1 ',1,32,36,104.64844771451354,34.242983720644375,0.0,0.0,0.0,0.0,1,1,0
315, '1 ',1,32,36,188.22807465087485,40.43643985337019,0.0,0.0,0.0,0.0,1,1,0
316, '1 ',1,32,36,76.30999004775659,17.87716361456271,0.0,0.0,0.0,0.0,1,1,0
317, '1 ',1,32,37,0.0,0.0,0.0,0.0,0.0,0.0,1,1,0
318, '1 ',1,32,37,213.26907283196803,54.81012727527357,0.0,0.0,0.0,0.0,1,1,0
319, '1 ',1,32,35,114.38283725115248,25.119477019656216,0.0,0.0,0.0,0.0,1,1,0
320, '1 ',1,32,35,107.10096433331967,20.85186798964944,0.0,0.0,0.0,0.0,1,1,0
321, '1 ',1,32,37,0.0,0.0,0.0,0.0,0.0,0.0,1,1,0
322, '1 ',1,32,37,0.0,0.0,0.0,0.0,0.0,0.0,1,1,0
323, '1 ',1,32,35,0.0,0.0,0.0,0.0,0.0,0.0,1,1,0
324, '1 ',1,32,36,0.0,0.0,0.0,0.0,0.0,0.0,1,1,0
325, '1 ',1,32,35,0.0,0.0,0.0,0.0,0.0,0.0,1,1,0
0 / END OF LOAD DATA, BEGIN FIXED SHUNT DATA
0 / END OF FIXED SHUNT DATA, BEGIN GENERATOR DATA
101,1,10,0,7.355635160580277,-5.464132974855602,1.035,0,24,0,1,0,0,1,1,100,22.02652524597943,19.047753854822368,1,1,0,1
101,2,10,0,8.147544255945832,-0.9218852701596916,1.035,0,24,0,1,0,0,1,1,100,22.49465394578874,19.378556065121664,1,1,0,1
101,3,76,14.1,23.262259270995855,-19.442571118241176,1.035,0,89,0,1,0,0,1,1,100,74.8660886645317,13.91045283421873,1,1,0,1
101,4,76,14.1,37.97928275261074,-11.273035568417981,1.035,0,89,0,1,0,0,1,1,100,69.79020934160799,24.49665931459517,1,1,0,1
102,5,10,0,12.65624551102519,4.862539557740093,1.035,0,24,0,1,0,0,1,1,100,23.663250070996583,20.286393661275508,1,1,0,1
102,6,10,0,12.912404000293463,3.1607865672558546,1.035,0,24,0,1,0,0,1,1,100,19.052292711101472,15.383252806235106,1,1,0,1
102,7,76,7,33.99375264951959,-7.936444777762517,1.035,0,89,0,1,0,0,1,1,100,64.28505470957607,37.18908466186101,1,1,0,1
102,8,76,7,32.67558923084289,-8.460114576853805,1.035,0,89,0,1,0,0,1,1,100,69.26360501237214,17.203576407819256,1,1,0,1
107,9,80,17.2,77.30317341350019,2.097628961317241,1.025,0,118,0,1,0,0,1,1,100,114.20321585144848,46.458183467620984,1,1,0,1
107,10,80,17.2,75.11344366427511,-1.8983580898493528,1.025,0,118,0,1,0,0,1,1,100,73.27218152116983,57.55341265190699,1,1,0,1
107,11,80,17.2,47.08908701129258,-21.04852491337806,1.025,0,118,0,1,0,0,1,1,100,88.89721987303346,21.492701320676133,1,1,0,1
113,12,95.1,40.7,102.78252589330077,36.32969878613949,1.02,0,232,0,1,0,0,1,1,100,152.09438303345814,59.29693605060689,1,1,0,1
113,13,95.1,40.7,94.35009753704071,3.3592816963791847,1.02,0,232,0,1,0,0,1,1,100,165.1731391598936,68.75480510736114,1,1,0,1
113,14,95.1,40.7,84.90875971317291,-6.260949265211821,1.02,0,232,0,1,0,0,1,1,100,195.37392293275332,57.50668390242845,1,1,0,1
114,15,0,13.7,214.53898697160184,-66.92720384802669,0.98,0,100,0,1,0,0,1,1,100,0.0,0.0,1,1,0,1
115,16,12,0,4.45710307052359,-0.8795271495357158,1.014,0,14,0,1,0,0,1,1,100,11.682404805533587,2.0814707262441505,1,1,0,1
115,17,12,0,4.959900563769042,-1.5509712914004918,1.014,0,14,0,1,0,0,1,1,100,11.979685483686627,4.106154764704408,1,1,0,1
115,18,12,0,4.2277040733955795,-1.2420927171595393,1.014,0,14,0,1,0,0,1,1,100,10.254156334698202,3.263954044913506,1,1,0,1
115,19,12,0,7.17711621299386,-0.14696846958249932,1.014,0,14,0,1,0,0,1,1,100,8.743118022568524,0.813280099686006,1,1,0,1
115,20,12,0,7.456215637084098,1.3407585125416528,1.014,0,14,0,1,0,0,1,1,100,10.465827242843808,0.8984387953206916,1,1,0,1
115,21,155,0.05,86.64710946753621,-16.552629343234003,1.014,0,182,0,1,0,0,1,1,100,198.75135748810135,122.68142164924647,1,1,0,1
116,22,155,25.22,98.50781746953726,-19.765689813066274,1.017,0,182,0,1,0,0,1,1,100,160.92348607070744,61.439248111052436,1,1,0,1
118,23,400,137.4,159.98886082321405,-46.79384012473744,1.05,0,471,0,1,0,0,1,1,100,456.1126701720059,237.72828897461295,1,1,0,1
121,24,400,108.2,246.83328687213358,-18.386830755043803,1.05,0,471,0,1,0,0,1,1,100,467.1072900667786,178.3903536992147,1,1,0,1
122,25,50,-4.96,19.945631451904774,-13.67928848760203,1.05,0,53,0,1,0,0,1,1,100,41.25584323192015,4.378608386032283,1,1,0,1
122,26,50,-4.96,18.772958758473397,-13.960379625391216,1.05,0,53,0,1,0,0,1,1,100,41.47139979759231,4.831183865180949,1,1,0,1
122,27,50,-4.96,14.366180445998907,-14.915050420351328,1.05,0,53,0,1,0,0,1,1,100,46.625027435366064,9.121323691215366,1,1,0,1
122,28,50,-4.96,14.053117717057466,-8.720502956118436,1.05,0,53,0,1,0,0,1,1,100,48.00311053870245,11.57223500311374,1,1,0,1
122,29,50,-4.96,20.629144452512264,0.9784654125571279,1.05,0,53,0,1,0,0,1,1,100,41.542042288929224,3.947998567018658,1,1,0,1
122,30,50,-4.96,13.517822048813105,-17.708725487533957,1.05,0,53,0,1,0,0,1,1,100,61.59900875063613,5.096200690604746,1,1,0,1
123,31,155,31.79,79.40425130352378,-61.6528896051459,1.05,0,182,0,1,0,0,1,1,100,160.5907551960554,33.26332029120529,1,1,0,1
123,32,155,31.79,70.63934428617358,-87.79014098783955,1.05,0,182,0,1,0,0,1,1,100,172.20712237013504,56.454852707777164,1,1,0,1
123,33,350,71.78,190.21477585891265,51.7147860047408,1.05,0,412,0,1,0,0,1,1,100,267.12482833303505,50.561147630214634,1,1,0,1
201,34,10,0,7.396588541567325,-1.309802668634803,1.035,0,24,0,1,0,0,1,1,100,24.170211734250188,20.419312683688478,1,1,0,1
201,35,10,0,10.641615360509604,-1.5807366035878658,1.035,0,24,0,1,0,0,1,1,100,23.145799780264497,19.048040634626524,1,1,0,1
201,36,76,14.1,24.13710292149335,-17.737641544314094,1.035,0,89,0,1,0,0,1,1,100,78.86068856213241,26.253092868812374,1,1,0,1
201,37,76,14.1,25.04489441262558,-35.345395382493734,1.035,0,89,0,1,0,0,1,1,100,56.722543213330205,44.83609624295545,1,1,0,1
202,38,10,0,11.92567640542984,0.6899856864474714,1.035,0,24,0,1,0,0,1,1,100,24.780643993988633,21.293002108763904,1,1,0,1
202,39,10,0,10.670863395556808,2.999971955548972,1.035,0,24,0,1,0,0,1,1,100,23.43841106723994,19.796215146640318,1,1,0,1
202,40,76,7,36.697101306170225,-2.3953150019515306,1.035,0,89,0,1,0,0,1,1,100,98.76007962990552,34.512820861376824,1,1,0,1
202,41,76,7,21.57048269826919,-34.44135916628874,1.035,0,89,0,1,0,0,1,1,100,57.69810502324253,1.870867933817209,1,1,0,1
207,42,80,17.2,48.24489440303296,-12.353430110961199,1.025,0,118,0,1,0,0,1,1,100,120.32918696291746,55.99796873982997,1,1,0,1
207,43,80,17.2,68.68967324495316,7.660450897179551,1.025,0,118,0,1,0,0,1,1,100,84.3176432745531,2.4538293969817317,1,1,0,1
207,44,80,17.2,43.15319561585783,-13.312599118798978,1.025,0,118,0,1,0,0,1,1,100,111.51527714915575,50.401343881385415,1,1,0,1
213,45,95.1,40.7,96.68014632165432,14.14222664013505,1.02,0,232,0,1,0,0,1,1,100,241.83925691721964,149.71578612598825,1,1,0,1
213,46,95.1,40.7,62.02330920100212,-36.655125338584185,1.02,0,232,0,1,0,0,1,1,100,212.86243267613463,65.01173219038637,1,1,0,1
213,47,95.1,40.7,67.50694113969803,-4.128195650875568,1.02,0,232,0,1,0,0,1,1,100,217.3292749335058,72.81038183503782,1,1,0,1
214,48,0,13.68,190.4789859894663,-123.33908813307062,0.98,0,100,0,1,0,0,1,1,100,0.0,0.0,1,1,0,1
215,49,12,0,4.911472860071807,-2.7624207277782276,1.014,0,14,0,1,0,0,1,1,100,10.22037378810346,8.94891122923592,1,1,0,1
215,50,12,0,4.676132680289447,0.09589050365611929,1.014,0,14,0,1,0,0,1,1,100,14.988968353159727,3.301481218077244,1,1,0,1
215,51,12,0,7.492926977388562,3.2540399816818546,1.014,0,14,0,1,0,0,1,1,100,13.88100036866963,4.409963833317162,1,1,0,1
215,52,12,0,6.932009325642138,0.734978988021612,1.014,0,14,0,1,0,0,1,1,100,8.988243667781353,1.5731287188827991,1,1,0,1
215,53,12,0,7.631089485716075,2.589958814531565,1.014,0,14,0,1,0,0,1,1,100,12.256114424206316,3.2137787741795183,1,1,0,1
215,54,155,0.048,88.12576212361455,-31.44129805546254,1.014,0,182,0,1,0,0,1,1,100,184.32511799805798,89.47482459752355,1,1,0,1
216,55,155,25.22,95.82898158952594,-15.886116293724626,1.017,0,182,0,1,0,0,1,1,100,120.2824594664853,7.529313832102346,1,1,0,1
218,56,400,137.4,229.80150532908738,-5.493035677354783,1.05,0,471,0,1,0,0,1,1,100,509.6075990051031,151.51595569681376,1,1,0,1
221,57,400,108.2,226.36250573210418,-38.80717005580664,1.05,0,471,0,1,0,0,1,1,100,442.1754436939954,180.47756348270917,1,1,0,1
222,58,50,-4.96,17.00291536077857,-14.992296527046712,1.05,0,53,0,1,0,0,1,1,100,62.130638314411044,2.180759736802429,1,1,0,1
222,59,50,-4.96,14.514079511910676,-12.86504003247246,1.05,0,53,0,1,0,0,1,1,100,37.098125990014516,26.17740856211083,1,1,0,1
222,60,50,-4.96,12.462530052661895,-20.87664372781292,1.05,0,53,0,1,0,0,1,1,100,62.19908501254394,10.763028000947081,1,1,0,1
222,61,50,-4.96,17.474450758844615,-11.030991477798668,1.05,0,53,0,1,0,0,1,1,100,43.497368295211345,36.96883871177354,1,1,0,1
222,62,50,-4.96,15.446954556554555,-15.66201238920912,1.05,0,53,0,1,0,0,1,1,100,47.81682678498328,12.25573213538155,1,1,0,1
222,63,50,-4.96,18.75640710145235,-5.9533711595460765,1.05,0,53,0,1,0,0,1,1,100,39.40898424945771,31.574898740075803,1,1,0,1
223,64,155,31.79,76.82569706067443,-41.49188377195969,1.05,0,182,0,1,0,0,1,1,100,130.66204426181503,53.21235875681741,1,1,0,1
223,65,155,31.79,103.48442225158216,-15.801953997928635,1.05,0,182,0,1,0,0,1,1,100,112.04450608650222,10.406907910411249,1,1,0,1
223,66,350,71.78,108.21388203883544,-100.85824889247309,1.05,0,412,0,1,0,0,1,1,100,354.8536820779554,171.95024830801407,1,1,0,1
301,67,10,0,8.56399154337123,-2.994538090657443,1.035,0,24,0,1,0,0,1,1,100,24.056909221224487,18.671653689155356,1,1,0,1
301,68,10,0,12.298620054963978,4.610371881164612,1.035,0,24,0,1,0,0,1,1,100,16.82435856293887,12.318765438422563,1,1,0,1
301,69,76,14.1,31.45188972260803,-31.155583229847252,1.035,0,89,0,1,0,0,1,1,100,76.64042885825039,27.95184860885145,1,1,0,1
301,70,76,14.1,36.56456016981974,-12.679097871063277,1.035,0,89,0,1,0,0,1,1,100,75.755290190503,11.515820118412378,1,1,0,1
302,71,10,0,8.433297173585743,-0.6837783856317401,1.035,0,24,0,1,0,0,1,1,100,19.760728185996413,15.567908553825692,1,1,0,1
302,72,10,0,10.240751964505762,-0.28863811679184437,1.035,0,24,0,1,0,0,1,1,100,24.858966735191643,21.29773636089638,1,1,0,1
302,73,76,7,21.259170478675514,-39.883223886601634,1.035,0,89,0,1,0,0,1,1,100,90.44235588628798,32.19044437695295,1,1,0,1
302,74,76,7,26.514711886178702,-44.37455084989779,1.035,0,89,0,1,0,0,1,1,100,80.03710018564016,16.517393196709463,1,1,0,1
307,75,80,17.2,50.09707056172192,-4.2660462548956275,1.025,0,118,0,1,0,0,1,1,100,112.68677124753594,37.75616679457016,1,1,0,1
307,76,80,17.2,61.72187077347189,-8.839496914297342,1.025,0,118,0,1,0,0,1,1,100,126.45785317756237,67.0498433057219,1,1,0,1
307,77,80,17.2,48.99402082152664,5.825770905241363,1.025,0,118,0,1,0,0,1,1,100,76.70139007735996,4.014989247079924,1,1,0,1
313,78,95.1,40.7,96.30886862426998,7.46320723369719,1.02,0,232,0,1,0,0,1,1,100,218.75514301354997,120.9696999849542,1,1,0,1
313,79,95.1,40.7,92.47254095599055,17.24581479281187,1.02,0,232,0,1,0,0,1,1,100,138.56077685398049,106.6984863452359,1,1,0,1
313,80,95.1,40.7,82.12076745927334,1.6660298444330692,1.02,0,232,0,1,0,0,1,1,100,233.75164029933512,134.82398274037755,1,1,0,1
314,81,0,13.68,221.42344450578096,1.319908122532098,0.98,0,100,0,1,0,0,1,1,100,0.0,0.0,1,1,0,1
315,82,12,0,4.721462180279195,-1.8261304833926264,1.014,0,14,0,1,0,0,1,1,100,8.9175669003278,1.0780960767142067,1,1,0,1
315,83,12,0,7.324125934112818,3.046305274777115,1.014,0,14,0,1,0,0,1,1,100,13.01784962732345,2.1703533843532234,1,1,0,1
315,84,12,0,4.387401919718831,-1.28411430073902,1.014,0,14,0,1,0,0,1,1,100,9.98398547898978,0.5641588328406222,1,1,0,1
315,85,12,0,4.31869373274967,-2.351975370571017,1.014,0,14,0,1,0,0,1,1,100,14.484166073799132,3.3689005114138126,1,1,0,1
315,86,12,0,7.260916238743811,-0.43177378205582606,1.014,0,14,0,1,0,0,1,1,100,15.408208017423748,8.199839053675532,1,1,0,1
315,87,155,0.048,99.73852678015828,-41.04177282238379,1.014,0,182,0,1,0,0,1,1,100,127.93073803465812,109.09063928104207,1,1,0,1
316,88,155,25.22,74.25731401145458,-64.95959516987205,1.017,0,182,0,1,0,0,1,1,100,179.3135252208449,71.97327709503007,1,1,0,1
318,89,400,137.4,252.1115768514574,-54.032139079645304,1.05,0,471,0,1,0,0,1,1,100,498.2767714746297,234.10476437769836,1,1,0,1
321,90,400,108.2,243.6004614178091,29.766169337090076,1.05,0,471,0,1,0,0,1,1,100,454.12419116124505,224.23891495913264,1,1,0,1
322,91,50,-4.96,11.898936077952385,-19.288490588311106,1.05,0,53,0,1,0,0,1,1,100,39.89645958179608,17.442534226248288,1,1,0,1
322,92,50,-4.96,16.045932525396346,-7.327843350451442,1.05,0,53,0,1,0,0,1,1,100,45.54228582419455,10.032454871299368,1,1,0,1
322,93,50,-4.96,18.907078800350426,-6.377058132551614,1.05,0,53,0,1,0,0,1,1,100,58.32035843282938,14.119738179724663,1,1,0,1
322,94,50,-4.96,12.93005707487464,-12.665522881411018,1.05,0,53,0,1,0,0,1,1,100,39.9438883154653,20.418162945230357,1,1,0,1
322,95,50,-4.96,20.202417164295912,0.5424591991119101,1.05,0,53,0,1,0,0,1,1,100,57.804329141508795,4.097647606395199,1,1,0,1
322,96,50,-4.96,19.234097192436458,-5.4902996656484895,1.05,0,53,0,1,0,0,1,1,100,45.5726809380576,3.866123079624613,1,1,0,1
323,97,155,31.79,57.565684605389826,-108.85134403267875,1.05,0,182,0,1,0,0,1,1,100,189.55514739570208,110.56628572597401,1,1,0,1
323,98,155,31.79,61.558451130986214,-66.0193994040601,1.05,0,182,0,1,0,0,1,1,100,193.8573698552791,98.41863282831618,1,1,0,1
323,99,350,71.78,111.97196844499558,-112.67917746328752,1.05,0,412,0,1,0,0,1,1,100,299.5102960709482,134.51773700909686,1,1,0,1
0 / END OF GENERATOR DATA, BEGIN BRANCH DATA
101,102,1,0.003,0.014,0.461,210.0,231.6,240.0,0,0,0,0,1,1,0,1,1
101,103,1,0.055,0.211,0.057,210.0,249.6,264.0,0,0,0,0,1,1,0,1,1
101,105,1,0.022,0.085,0.023,210.0,249.6,264.0,0,0,0,0,1,1,0,1,1
102,104,1,0.033,0.127,0.034,210.0,249.6,264.0,0,0,0,0,1,1,0,1,1
102,106,1,0.05,0.192,0.052,210.0,249.6,264.0,0,0,0,0,1,1,0,1,1
103,109,1,0.031,0.119,0.032,210.0,249.6,264.0,0,0,0,0,1,1,0,1,1
104,109,1,0.027,0.104,0.028,210.0,249.6,264.0,0,0,0,0,1,1,0,1,1
105,110,1,0.023,0.088,0.024,210.0,249.6,264.0,0,0,0,0,1,1,0,1,1
106,110,1,0.014,0.061,2.459,210.0,231.6,240.0,0,0,0,0,1,1,0,1,1
107,108,1,0.016,0.061,0.017,210.0,249.6,264.0,0,0,0,0,1,1,0,1,1
107,203,1,0.042,0.161,0.044,210.0,249.6,264.0,0,0,0,0,1,1,0,1,1
108,109,1,0.043,0.165,0.045,210.0,249.6,264.0,0,0,0,0,1,1,0,1,1
108,110,1,0.043,0.165,0.045,210.0,249.6,264.0,0,0,0,0,1,1,0,1,1
111,113,1,0.006,0.048,0.1,600.0,720.0,750.0,0,0,0,0,1,1,0,1,1
111,114,1,0.005,0.042,0.088,600.0,720.0,750.0,0,0,0,0,1,1,0,1,1
112,113,1,0.006,0.048,0.1,600.0,720.0,750.0,0,0,0,0,1,1,0,1,1
112,123,1,0.012,0.097,0.203,600.0,720.0,750.0,0,0,0,0,1,1,0,1,1
113,123,1,0.011,0.087,0.182,600.0,720.0,750.0,0,0,0,0,1,1,0,1,1
113,215,1,0.01,0.075,0.158,600.0,720.0,750.0,0,0,0,0,1,1,0,1,1
114,116,1,0.005,0.059,0.082,600.0,720.0,750.0,0,0,0,0,1,1,0,1,1
115,116,1,0.002,0.017,0.036,600.0,720.0,750.0,0,0,0,0,1,1,0,1,1
115,121,1,0.006,0.049,0.103,600.0,720.0,750.0,0,0,0,0,1,1,0,1,1
115,121,2,0.006,0.049,0.103,600.0,720.0,750.0,0,0,0,0,1,1,0,1,1
115,124,1,0.007,0.052,0.109,600.0,720.0,750.0,0,0,0,0,1,1,0,1,1
116,117,1,0.003,0.026,0.055,600.0,720.0,750.0,0,0,0,0,1,1,0,1,1
116,119,1,0.003,0.023,0.049,600.0,720.0,750.0,0,0,0,0,1,1,0,1,1
117,118,1,0.002,0.014,0.03,600.0,720.0,750.0,0,0,0,0,1,1,0,1,1
117,122,1,0.014,0.105,0.221,600.0,720.0,750.0,0,0,0,0,1,1,0,1,1
118,121,1,0.003,0.026,0.055,600.0,720.0,750.0,0,0,0,0,1,1,0,1,1
118,121,2,0.003,0.026,0.055,600.0,720.0,750.0,0,0,0,0,1,1,0,1,1
119,120,1,0.005,0.04,0.083,600.0,720.0,750.0,0,0,0,0,1,1,0,1,1
119,120,2,0.005,0.04,0.083,600.0,720.0,750.0,0,0,0,0,1,1,0,1,1
120,123,1,0.003,0.022,0.046,600.0,720.0,750.0,0,0,0,0,1,1,0,1,1
120,123,2,0.003,0.022,0.046,600.0,720.0,750.0,0,0,0,0,1,1,0,1,1
121,122,1,0.009,0.068,0.142,600.0,720.0,750.0,0,0,0,0,1,1,0,1,1
123,217,1,0.01,0.074,0.155,600.0,720.0,750.0,0,0,0,0,1,1,0,1,1
201,202,1,0.003,0.014,0.461,210.0,231.6,240.0,0,0,0,0,1,1,0,1,1
201,203,1,0.055,0.211,0.057,210.0,249.6,264.0,0,0,0,0,1,1,0,1,1
201,205,1,0.022,0.085,0.023,210.0,249.6,264.0,0,0,0,0,1,1,0,1,1
202,204,1,0.033,0.127,0.034,210.0,249.6,264.0,0,0,0,0,1,1,0,1,1
202,206,1,0.05,0.192,0.052,210.0,249.6,264.0,0,0,0,0,1,1,0,1,1
203,209,1,0.031,0.119,0.032,210.0,249.6,264.0,0,0,0,0,1,1,0,1,1
204,209,1,0.027,0.104,0.028,210.0,249.6,264.0,0,0,0,0,1,1,0,1,1
205,210,1,0.023,0.088,0.024,210.0,249.6,264.0,0,0,0,0,1,1,0,1,1
206,210,1,0.014,0.061,2.459,210.0,231.6,240.0,0,0,0,0,1,1,0,1,1
207,208,1,0.016,0.061,0.017,210.0,249.6,264.0,0,0,0,0,1,1,0,1,1
208,209,1,0.043,0.165,0.045,210.0,249.6,264.0,0,0,0,0,1,1,0,1,1
208,210,1,0.043,0.165,0.045,210.0,249.6,264.0,0,0,0,0,1,1,0,1,1
211,213,1,0.006,0.048,0.1,600.0,720.0,750.0,0,0,0,0,1,1,0,1,1
211,214,1,0.005,0.042,0.088,600.0,720.0,750.0,0,0,0,0,1,1,0,1,1
212,213,1,0.006,0.048,0.1,600.0,720.0,750.0,0,0,0,0,1,1,0,1,1
212,223,1,0.012,0.097,0.203,600.0,720.0,750.0,0,0,0,0,1,1,0,1,1
213,223,1,0.011,0.087,0.182,600.0,720.0,750.0,0,0,0,0,1,1,0,1,1
214,216,1,0.005,0.059,0.082,600.0,720.0,750.0,0,0,0,0,1,1,0,1,1
215,216,1,0.002,0.017,0.036,600.0,720.0,750.0,0,0,0,0,1,1,0,1,1
215,221,1,0.006,0.049,0.103,600.0,720.0,750.0,0,0,0,0,1,1,0,1,1
215,221,2,0.006,0.049,0.103,600.0,720.0,750.0,0,0,0,0,1,1,0,1,1
215,224,1,0.007,0.052,0.109,600.0,720.0,750.0,0,0,0,0,1,1,0,1,1
216,217,1,0.003,0.026,0.055,600.0,720.0,750.0,0,0,0,0,1,1,0,1,1
216,219,1,0.003,0.023,0.049,600.0,720.0,750.0,0,0,0,0,1,1,0,1,1
217,218,1,0.002,0.014,0.03,600.0,720.0,750.0,0,0,0,0,1,1,0,1,1
217,222,1,0.014,0.105,0.221,600.0,720.0,750.0,0,0,0,0,1,1,0,1,1
218,221,1,0.003,0.026,0.055,600.0,720.0,750.0,0,0,0,0,1,1,0,1,1
218,221,2,0.003,0.026,0.055,600.0,720.0,750.0,0,0,0,0,1,1,0,1,1
219,220,1,0.005,0.04,0.083,600.0,720.0,750.0,0,0,0,0,1,1,0,1,1
219,220,2,0.005,0.04,0.083,600.0,720.0,750.0,0,0,0,0,1,1,0,1,1
220,223,1,0.003,0.022,0.046,600.0,720.0,750.0,0,0,0,0,1,1,0,1,1
220,223,2,0.003,0.022,0.046,600.0,720.0,750.0,0,0,0,0,1,1,0,1,1
221,222,1,0.009,0.068,0.142,600.0,720.0,750.0,0,0,0,0,1,1,0,1,1
301,302,1,0.003,0.014,0.461,210.0,231.6,240.0,0,0,0,0,1,1,0,1,1
301,303,1,0.055,0.211,0.057,210.0,249.6,264.0,0,0,0,0,1,1,0,1,1
301,305,1,0.022,0.085,0.023,210.0,249.6,264.0,0,0,0,0,1,1,0,1,1
302,304,1,0.033,0.127,0.034,210.0,249.6,264.0,0,0,0,0,1,1,0,1,1
302,306,1,0.05,0.192,0.052,210.0,249.6,264.0,0,0,0,0,1,1,0,1,1
303,309,1,0.031,0.119,0.032,210.0,249.6,264.0,0,0,0,0,1,1,0,1,1
304,309,1,0.027,0.104,0.028,210.0,249.6,264.0,0,0,0,0,1,1,0,1,1
305,310,1,0.023,0.088,0.024,210.0,249.6,264.0,0,0,0,0,1,1,0,1,1
306,310,1,0.014,0.061,2.459,210.0,231.6,240.0,0,0,0,0,1,1,0,1,1
307,308,1,0.016,0.061,0.017,210.0,249.6,264.0,0,0,0,0,1,1,0,1,1
308,309,1,0.043,0.165,0.045,210.0,249.6,264.0,0,0,0,0,1,1,0,1,1
308,310,1,0.043,0.165,0.045,210.0,249.6,264.0,0,0,0,0,1,1,0,1,1
311,313,1,0.006,0.048,0.1,600.0,720.0,750.0,0,0,0,0,1,1,0,1,1
311,314,1,0.005,0.042,0.088,600.0,720.0,750.0,0,0,0,0,1,1,0,1,1
312,313,1,0.006,0.048,0.1,600.0,720.0,750.0,0,0,0,0,1,1,0,1,1
312,323,1,0.012,0.097,0.203,600.0,720.0,750.0,0,0,0,0,1,1,0,1,1
313,323,1,0.011,0.087,0.182,600.0,720.0,750.0,0,0,0,0,1,1,0,1,1
314,316,1,0.005,0.059,0.082,600.0,720.0,750.0,0,0,0,0,1,1,0,1,1
315,316,1,0.002,0.017,0.036,600.0,720.0,750.0,0,0,0,0,1,1,0,1,1
315,321,1,0.006,0.049,0.103,600.0,720.0,750.0,0,0,0,0,1,1,0,1,1
315,321,2,0.006,0.049,0.103,600.0,720.0,750.0,0,0,0,0,1,1,0,1,1
315,324,1,0.007,0.052,0.109,600.0,720.0,750.0,0,0,0,0,1,1,0,1,1
316,317,1,0.003,0.026,0.055,600.0,720.0,750.0,0,0,0,0,1,1,0,1,1
316,319,1,0.003,0.023,0.049,600.0,720.0,750.0,0,0,0,0,1,1,0,1,1
317,318,1,0.002,0.014,0.03,600.0,720.0,750.0,0,0,0,0,1,1,0,1,1
317,322,1,0.014,0.105,0.221,600.0,720.0,750.0,0,0,0,0,1,1,0,1,1
318,223,1,0.013,0.104,0.218,600.0,720.0,750.0,0,0,0,0,1,1,0,1,1
318,321,1,0.003,0.026,0.055,600.0,720.0,750.0,0,0,0,0,1,1,0,1,1
318,321,2,0.003,0.026,0.055,600.0,720.0,750.0,0,0,0,0,1,1,0,1,1
319,320,1,0.005,0.04,0.083,600.0,720.0,750.0,0,0,0,0,1,1,0,1,1
319,320,2,0.005,0.04,0.083,600.0,720.0,750.0,0,0,0,0,1,1,0,1,1
320,323,1,0.003,0.022,0.046,600.0,720.0,750.0,0,0,0,0,1,1,0,1,1
320,323,2,0.003,0.022,0.046,600.0,720.0,750.0,0,0,0,0,1,1,0,1,1
321,322,1,0.009,0.068,0.142,600.0,720.0,750.0,0,0,0,0,1,1,0,1,1
323,325,1,0,0.009,0,866.4,1071.6,1071.6,0,0,0,0,1,1,0,1,1
0 / END OF BRANCH DATA, BEGIN TRANSFORMER DATA
  103 ,  124 , 0,  1 , 1, 1, 1, 0, 0, 2, '            ',  1 , 1, 1
   0.002000 ,  0.084000 ,  100.000000
   1.015000 , 0,  0.000000 ,  400.000000 ,  510.000000 ,  600.000000 , 0, 0,  1.10 ,  0.90 ,  1.10 ,  0.90 , 33, 0, 0, 0
   1.000000, 0
  109 ,  111 , 0,  1 , 1, 1, 1, 0, 0, 2, '            ',  1 , 1, 1
   0.002000 ,  0.084000 ,  100.000000
   1.030000 , 0,  0.000000 ,  400.000000 ,  510.000000 ,  600.000000 , 0, 0,  1.10 ,  0.90 ,  1.10 ,  0.90 , 33, 0, 0, 0
   1.000000, 0
  109 ,  112 , 0,  1 , 1, 1, 1, 0, 0, 2, '            ',  1 , 1, 1
   0.002000 ,  0.084000 ,  100.000000
   1.030000 , 0,  0.000000 ,  400.000000 ,  510.000000 ,  600.000000 , 0, 0,  1.10 ,  0.90 ,  1.10 ,  0.90 , 33, 0, 0, 0
   1.000000, 0
  110 ,  111 , 0,  1 , 1, 1, 1, 0, 0, 2, '            ',  1 , 1, 1
   0.002000 ,  0.084000 ,  100.000000
   1.015000 , 0,  0.000000 ,  400.000000 ,  510.000000 ,  600.000000 , 0, 0,  1.10 ,  0.90 ,  1.10 ,  0.90 , 33, 0, 0, 0
   1.000000, 0
  110 ,  112 , 0,  1 , 1, 1, 1, 0, 0, 2, '            ',  1 , 1, 1
   0.002000 ,  0.084000 ,  100.000000
   1.015000 , 0,  0.000000 ,  400.000000 ,  510.000000 ,  600.000000 , 0, 0,  1.10 ,  0.90 ,  1.10 ,  0.90 , 33, 0, 0, 0
   1.000000, 0
  203 ,  224 , 0,  1 , 1, 1, 1, 0, 0, 2, '            ',  1 , 1, 1
   0.002000 ,  0.084000 ,  100.000000
   1.015000 , 0,  0.000000 ,  400.000000 ,  510.000000 ,  600.000000 , 0, 0,  1.10 ,  0.90 ,  1.10 ,  0.90 , 33, 0, 0, 0
   1.000000, 0
  209 ,  211 , 0,  1 , 1, 1, 1, 0, 0, 2, '            ',  1 , 1, 1
   0.002000 ,  0.084000 ,  100.000000
   1.030000 , 0,  0.000000 ,  400.000000 ,  510.000000 ,  600.000000 , 0, 0,  1.10 ,  0.90 ,  1.10 ,  0.90 , 33, 0, 0, 0
   1.000000, 0
  209 ,  212 , 0,  1 , 1, 1, 1, 0, 0, 2, '            ',  1 , 1, 1
   0.002000 ,  0.084000 ,  100.000000
   1.030000 , 0,  0.000000 ,  400.000000 ,  510.000000 ,  600.000000 , 0, 0,  1.10 ,  0.90 ,  1.10 ,  0.90 , 33, 0, 0, 0
   1.000000, 0
  210 ,  211 , 0,  1 , 1, 1, 1, 0, 0, 2, '            ',  1 , 1, 1
   0.002000 ,  0.084000 ,  100.000000
   1.015000 , 0,  0.000000 ,  400.000000 ,  510.000000 ,  600.000000 , 0, 0,  1.10 ,  0.90 ,  1.10 ,  0.90 , 33, 0, 0, 0
   1.000000, 0
  210 ,  212 , 0,  1 , 1, 1, 1, 0, 0, 2, '            ',  1 , 1, 1
   0.002000 ,  0.084000 ,  100.000000
   1.015000 , 0,  0.000000 ,  400.000000 ,  510.000000 ,  600.000000 , 0, 0,  1.10 ,  0.90 ,  1.10 ,  0.90 , 33, 0, 0, 0
   1.000000, 0
  303 ,  324 , 0,  1 , 1, 1, 1, 0, 0, 2, '            ',  1 , 1, 1
   0.002000 ,  0.084000 ,  100.000000
   1.015000 , 0,  0.000000 ,  400.000000 ,  510.000000 ,  600.000000 , 0, 0,  1.10 ,  0.90 ,  1.10 ,  0.90 , 33, 0, 0, 0
   1.000000, 0
  309 ,  311 , 0,  1 , 1, 1, 1, 0, 0, 2, '            ',  1 , 1, 1
   0.002000 ,  0.084000 ,  100.000000
   1.030000 , 0,  0.000000 ,  400.000000 ,  510.000000 ,  600.000000 , 0, 0,  1.10 ,  0.90 ,  1.10 ,  0.90 , 33, 0, 0, 0
   1.000000, 0
  309 ,  312 , 0,  1 , 1, 1, 1, 0, 0, 2, '            ',  1 , 1, 1
   0.002000 ,  0.084000 ,  100.000000
   1.030000 , 0,  0.000000 ,  400.000000 ,  510.000000 ,  600.000000 , 0, 0,  1.10 ,  0.90 ,  1.10 ,  0.90 , 33, 0, 0, 0
   1.000000, 0
  310 ,  311 , 0,  1 , 1, 1, 1, 0, 0, 2, '            ',  1 , 1, 1
   0.002000 ,  0.084000 ,  100.000000
   1.015000 , 0,  0.000000 ,  400.000000 ,  510.000000 ,  600.000000 , 0, 0,  1.10 ,  0.90 ,  1.10 ,  0.90 , 33, 0, 0, 0
   1.000000, 0
  310 ,  312 , 0,  1 , 1, 1, 1, 0, 0, 2, '            ',  1 , 1, 1
   0.002000 ,  0.084000 ,  100.000000
   1.015000 , 0,  0.000000 ,  400.000000 ,  510.000000 ,  600.000000 , 0, 0,  1.10 ,  0.90 ,  1.10 ,  0.90 , 33, 0, 0, 0
   1.000000, 0
0 / END OF TRANSFORMER DATA, BEGIN AREA DATA
0 / END OF AREA DATA, BEGIN TWO-TERMINAL DC DATA
0 / END OF TWO-TERMINAL DC DATA, BEGIN VSC DC LINE DATA
0 / END OF VSC DC LINE DATA, BEGIN SWITCHED SHUNT DATA
0 / END OF SWITCHED SHUNT DATA, BEGIN IMPEDANCE CORRECTION DATA
0 / END OF IMPEDANCE CORRECTION DATA, BEGIN MULTI-TERMINAL DC DATA
0 / END OF MULTI-TERMINAL DC DATA, BEGIN MULTI-SECTION LINE DATA
0 / END OF MULTI-SECTION LINE DATA, BEGIN ZONE DATA
0 / END OF ZONE DATA, BEGIN INTER-AREA TRANSFER DATA
0 / END OF INTER-AREA TRANSFER DATA, BEGIN OWNER DATA
0 / END OF OWNER DATA, BEGIN FACTS CONTROL DEVICE DATA
0 / END OF FACTS CONTROL DEVICE DATA
0 / END OF SWITCHED SHUNT DATA, BEGIN GNE DATA
0 / END OF GNE DATA, BEGIN INDUCTION MACHINE DATA
0 / END OF INDUCTION MACHINE DATA
Q 
